@<TRIPOS>MOLECULE
*****
 45 45 0 0 0
SMALL
GASTEIGER

@<TRIPOS>ATOM
      1 P         -32.9352  -11.3737   22.0862 P.3     0  IPL0        0.2103
      2 P         -29.0978  -12.4351   23.8406 P.3     0  IPL0        0.2103
      3 P         -28.9018   -8.3747   26.0295 P.3     0  IPL0        0.2103
      4 P         -29.8817  -10.0875   29.7825 P.3     0  IPL0        0.2672
      5 P         -35.1207  -10.5110   29.1379 P.3     0  IPL0        0.3003
      6 P         -34.9058  -14.3978   25.5566 P.3     0  IPL0        0.3003
      7 C         -32.6044  -11.4735   24.7881 C.3     0  IPL0        0.1239
      8 C         -31.1000  -11.0768   25.0276 C.3     0  IPL0        0.1238
      9 C         -30.8761  -10.2009   26.3187 C.3     0  IPL0        0.1238
     10 C         -31.4768  -10.8667   27.6431 C.3     0  IPL0        0.1244
     11 C         -33.1151  -11.1446   27.3396 C.3     0  IPL0        0.1250
     12 C         -33.2077  -12.2590   26.0721 C.3     0  IPL0        0.1250
     13 O         -32.7274  -12.1457   23.5053 O.3     0  IPL0       -0.3188
     14 O         -30.2244  -12.2470   24.9999 O.3     0  IPL0       -0.3188
     15 O         -29.4596   -9.8735   26.3353 O.3     0  IPL0       -0.3188
     16 O         -31.2359  -10.0374   28.8293 O.3     0  IPL0       -0.3131
     17 O         -33.8939  -11.4771   28.5317 O.3     0  IPL0       -0.3074
     18 O         -34.5446  -12.7843   25.7857 O.3     0  IPL0       -0.3074
     19 O         -32.9137  -12.3067   20.8803 O.2     0  IPL0       -0.5173
     20 O         -31.5442  -10.5614   21.9757 O.co2   0  IPL0       -0.3436
     21 O         -34.0153  -10.3073   22.1107 O.3     0  IPL0       -0.4374
     22 O         -29.5149  -11.8621   22.5004 O.2     0  IPL0       -0.5173
     23 O         -27.9592  -11.4416   24.4112 O.co2   0  IPL0       -0.3436
     24 O         -28.4491  -13.8085   23.8805 O.3     0  IPL0       -0.4374
     25 O         -27.3826   -8.3638   25.9338 O.3     0  IPL0       -0.4374
     26 O         -29.3202   -7.5873   27.3649 O.co2   0  IPL0       -0.3436
     27 O         -29.6424   -7.7352   24.8731 O.2     0  IPL0       -0.5173
     28 O         -30.2534   -9.5350   31.1683 O.3     0  IPL0       -0.1625
     29 O         -28.8776   -9.1262   29.1362 O.co2   0  IPL0       -0.8189
     30 O         -29.3656  -11.5205   29.8748 O.3     0  IPL0       -0.1625
     31 O         -36.3213  -10.5570   28.1913 O.2     0  IPL0       -0.2722
     32 O         -34.6171   -9.0740   29.2756 O.co2   0  IPL0       -0.7578
     33 O         -35.5037  -11.1048   30.5117 O.3     0  IPL0       -0.1534
     34 O         -36.3723  -14.4537   25.0743 O.3     0  IPL0       -0.1534
     35 O         -34.7473  -15.1462   26.8834 O.co2   0  IPL0       -0.7578
     36 O         -33.9783  -14.9775   24.4913 O.2     0  IPL0       -0.2722
     37 H         -33.1918  -10.5520   24.6933 H       0  IPL0        0.0654
     38 H         -30.7762  -10.4434   24.1993 H       0  IPL0        0.0654
     39 H         -31.4158   -9.2547   26.1880 H       0  IPL0        0.0654
     40 H         -31.0010  -11.8342   27.8333 H       0  IPL0        0.0655
     41 H         -33.5405  -10.2024   26.9736 H       0  IPL0        0.0655
     42 H         -32.5765  -13.1187   26.3221 H       0  IPL0        0.0655
     43 H         -29.1213   -8.2313   28.1328 H       1  UNL1        0.2176
     44 H         -28.4005  -10.6563   24.8000 H       1  UNL1        0.2176
     45 H         -30.7867  -11.2098   22.0857 H       1  UNL1        0.2176
@<TRIPOS>BOND
     1     1    19    2
     2     1    20    1
     3     1    21    1
     4     1    13    1
     5     2    22    2
     6     2    23    1
     7     2    24    1
     8     2    14    1
     9     3    27    2
    10     3    25    1
    11     3    15    1
    12     3    26    1
    13     4    16    1
    14     4    29    2
    15     4    30    1
    16     4    28    1
    17     5    31    2
    18     5    17    1
    19     5    32    1
    20     5    33    1
    21     6    36    2
    22     6    34    1
    23     6    18    1
    24     6    35    1
    25     7    13    1
    26     7    37    1
    27     7     8    1
    28     7    12    1
    29     8    38    1
    30     8    14    1
    31     8     9    1
    32     9    39    1
    33     9    15    1
    34     9    10    1
    35    10    11    1
    36    10    40    1
    37    10    16    1
    38    11    12    1
    39    11    41    1
    40    11    17    1
    41    12    18    1
    42    12    42    1
    43    20    45    1
    44    23    44    1
    45    26    43    1
