@<TRIPOS>MOLECULE
*****
 46 46 0 0 0
SMALL
GASTEIGER

@<TRIPOS>ATOM
      1 P         -32.9318  -11.4321   22.0852 P.3     0  IPL0        0.2103
      2 P         -29.0962  -12.4692   23.8043 P.3     0  IPL0        0.2103
      3 P         -28.8483   -8.3651   26.0198 P.3     0  IPL0        0.2103
      4 P         -29.9398  -10.0413   29.7917 P.3     0  IPL0        0.3003
      5 P         -35.1599  -11.2887   28.9929 P.3     0  IPL0        0.3003
      6 P         -35.0835  -13.9886   25.6882 P.3     0  IPL0        0.2103
      7 C         -32.5120  -11.3868   24.7614 C.3     0  IPL0        0.1238
      8 C         -31.0159  -11.0331   24.9941 C.3     0  IPL0        0.1238
      9 C         -30.8023  -10.1835   26.2944 C.3     0  IPL0        0.1239
     10 C         -31.3955  -10.8736   27.5989 C.3     0  IPL0        0.1250
     11 C         -32.9909  -11.1996   27.3169 C.3     0  IPL0        0.1250
     12 C         -33.1244  -12.1447   26.0132 C.3     0  IPL0        0.1239
     13 O         -32.6676  -12.1341   23.5272 O.3     0  IPL0       -0.3188
     14 O         -30.1920  -12.2325   24.9821 O.3     0  IPL0       -0.3188
     15 O         -29.3905   -9.8667   26.3283 O.3     0  IPL0       -0.3188
     16 O         -31.2391  -10.0155   28.7721 O.3     0  IPL0       -0.3074
     17 O         -33.6498  -11.7534   28.4930 O.3     0  IPL0       -0.3074
     18 O         -34.4902  -12.4752   25.6712 O.3     0  IPL0       -0.3188
     19 O         -32.9522  -12.4470   20.9523 O.2     0  IPL0       -0.5173
     20 O         -31.5583  -10.6103   21.8974 O.co2   0  IPL0       -0.3436
     21 O         -34.0361  -10.3955   22.1199 O.3     0  IPL0       -0.4374
     22 O         -29.5349  -11.8917   22.4743 O.2     0  IPL0       -0.5173
     23 O         -27.9143  -11.5146   24.3491 O.co2   0  IPL0       -0.3436
     24 O         -28.5219  -13.8725   23.8472 O.3     0  IPL0       -0.4374
     25 O         -27.3323   -8.3454   25.9201 O.2     0  IPL0       -0.5173
     26 O         -29.2806   -7.5887   27.3572 O.co2   0  IPL0       -0.3436
     27 O         -29.6130   -7.7481   24.8675 O.3     0  IPL0       -0.4374
     28 O         -30.4018   -9.4277   31.1204 O.3     0  IPL0       -0.1534
     29 O         -28.9004   -9.1169   29.1532 O.co2   0  IPL0       -0.7578
     30 O         -29.4541  -11.4767   29.9547 O.2     0  IPL0       -0.2722
     31 O         -36.1407  -12.1090   28.1537 O.2     0  IPL0       -0.2722
     32 O         -35.3247   -9.7862   28.7898 O.co2   0  IPL0       -0.7578
     33 O         -35.2862  -11.7067   30.4644 O.3     0  IPL0       -0.1534
     34 O         -36.4637  -14.0628   25.0430 O.3     0  IPL0       -0.4374
     35 O         -35.3122  -14.1948   27.2690 O.co2   0  IPL0       -0.3436
     36 O         -34.0703  -15.0382   25.2714 O.2     0  IPL0       -0.5173
     37 H         -33.0802  -10.4565   24.6374 H       0  IPL0        0.0654
     38 H         -30.6703  -10.4089   24.1657 H       0  IPL0        0.0654
     39 H         -31.3437   -9.2358   26.1807 H       0  IPL0        0.0654
     40 H         -30.8768  -11.8146   27.8086 H       0  IPL0        0.0655
     41 H         -33.4869  -10.2457   27.1045 H       0  IPL0        0.0655
     42 H         -32.5857  -13.0813   26.1934 H       0  IPL0        0.0654
     43 H         -35.7027  -13.3202   27.6132 H       1  UNL1        0.2176
     44 H         -29.0850   -8.2283   28.1297 H       1  UNL1        0.2176
     45 H         -28.3085  -10.6914   24.7084 H       1  UNL1        0.2176
     46 H         -30.7849  -11.2372   22.0258 H       1  UNL1        0.2176
@<TRIPOS>BOND
     1    19     1    2
     2    20     1    1
     3    21     1    1
     4     1    13    1
     5    22     2    2
     6    13     7    1
     7    23     2    1
     8     2    24    1
     9     2    14    1
    10    38     8    1
    11    27     3    1
    12    36     6    2
    13    37     7    1
    14     7     8    1
    15     7    12    1
    16     8    14    1
    17     8     9    1
    18    34     6    1
    19    18     6    1
    20    18    12    1
    21     6    35    1
    22    12    42    1
    23    12    11    1
    24    25     3    2
    25     3    15    1
    26     3    26    1
    27    39     9    1
    28     9    15    1
    29     9    10    1
    30    41    11    1
    31    11    10    1
    32    11    17    1
    33    10    40    1
    34    10    16    1
    35    31     5    2
    36    17     5    1
    37    16     4    1
    38     5    32    1
    39     5    33    1
    40    29     4    1
    41     4    30    2
    42     4    28    1
    43    35    43    1
    44    26    44    1
    45    23    45    1
    46    20    46    1
