@<TRIPOS>MOLECULE
methane
5 4 1 0 0
SMALL
USER_CHARGES

@<TRIPOS>ATOM
      1 C1         0.0000    0.0000    0.0000 C.3       1 LIG     -0.0000
      2 H1         0.6291    0.6291    0.6291 H         1 LIG      0.0000
      3 H2        -0.6291   -0.6291    0.6291 H         1 LIG      0.0000
      4 H3        -0.6291    0.6291   -0.6291 H         1 LIG      0.0000
      5 H4         0.6291   -0.6291   -0.6291 H         1 LIG      0.0000

@<TRIPOS>BOND
     1    1    2 1
     2    1    3 1
     3    1    4 1
     4    1    5 1

@<TRIPOS>SUBSTRUCTURE
     1 LIG         1 GROUP             0 ****  ****    0 ROOT
