@<TRIPOS>MOLECULE
*****
 45 45 0 0 0
SMALL
GASTEIGER

@<TRIPOS>ATOM
      1 P1        -32.8820  -11.3500   22.2390 P.3     0  IPL0        0.2103
      2 P2        -28.9490  -12.5020   24.2370 P.3     0  IPL0       -0.0144
      3 P3        -29.0370   -8.3360   26.1460 P.3     0  IPL0        0.2103
      4 P4        -30.3230  -10.4610   29.8620 P.3     0  IPL0        0.2103
      5 P5        -34.8530  -10.8980   29.1000 P.3     0  IPL0       -0.0144
      6 P6        -34.9070  -13.9390   25.7090 P.3     0  IPL0       -0.0144
      7 C1        -32.4380  -11.3860   24.8010 C.3     0  IPL0        0.1235
      8 C2        -30.9590  -11.0810   25.1210 C.3     0  IPL0        0.1198
      9 C3        -30.8630  -10.1730   26.3660 C.3     0  IPL0        0.1237
     10 C4        -31.5440  -10.8410   27.5820 C.3     0  IPL0        0.1237
     11 C5        -33.0190  -11.1650   27.2600 C.3     0  IPL0        0.1197
     12 C6        -33.1310  -12.0570   26.0060 C.3     0  IPL0        0.1197
     13 O1        -32.5140  -12.2570   23.6900 O.3     0  IPL0       -0.3188
     14 O2        -30.2690  -12.2950   25.3690 O.3     0  IPL0       -0.3587
     15 O3        -29.5020   -9.9410   26.6680 O.3     0  IPL0       -0.3188
     16 O4        -31.5170   -9.9540   28.6840 O.3     0  IPL0       -0.3188
     17 O5        -33.5850  -11.8540   28.3590 O.3     0  IPL0       -0.3587
     18 O6        -34.5010  -12.2370   25.6980 O.3     0  IPL0       -0.3587
     19 O7        -32.5380  -12.2810   21.0470 O.2     0  IPL0       -0.5173
     20 O8        -31.8910   -9.9360   22.0490 O.co2   0  IPL0       -0.4374
     21 O9        -34.5750  -10.9910   22.1040 O.3     0  IPL0       -0.3436
     22 O10       -29.5570  -12.7590   22.8330 O.2     0  IPL0       -0.6377
     23 O11       -27.9360  -11.0960   24.1310 O.co2   0  IPL0       -0.5770
     24 O12       -28.0090  -13.9040   24.6410 O.co2   0  IPL0       -0.5770
     25 O13       -27.4850   -8.2950   26.1390 O.2     0  IPL0       -0.5173
     26 O14       -29.5530   -7.1220   27.2730 O.co2   0  IPL0       -0.4374
     27 O15       -29.5620   -7.9750   24.5290 O.3     0  IPL0       -0.3436
     28 O16       -30.7230   -9.7730   31.1950 O.co2   0  IPL0       -0.4374
     29 O17       -28.7230   -9.9040   29.4680 O.3     0  IPL0       -0.3436
     30 O18       -30.3630  -12.1680   30.1840 O.2     0  IPL0       -0.5173
     31 O19       -36.0770  -10.9110   28.1450 O.2     0  IPL0       -0.6377
     32 O20       -34.3860   -9.2440   29.3440 O.co2   0  IPL0       -0.5770
     33 O21       -35.3720  -11.6150   30.5920 O.co2   0  IPL0       -0.5770
     34 O22       -36.3890  -14.0430   25.2620 O.co2   0  IPL0       -0.5770
     35 O23       -34.8160  -14.6190   27.3030 O.co2   0  IPL0       -0.5770
     36 O24       -33.9750  -14.8430   24.5570 O.2     0  IPL0       -0.6377
     37 H1        -32.9740  -10.4210   24.6300 H       0  IPL0        0.0654
     38 H2        -30.5460  -10.5110   24.2600 H       0  IPL0        0.0653
     39 H3        -31.4310   -9.2310   26.1680 H       0  IPL0        0.0654
     40 H4        -31.0370  -11.8120   27.7870 H       0  IPL0        0.0654
     41 H5        -33.5360  -10.2040   27.0220 H       0  IPL0        0.0653
     42 H6        -32.5930  -13.0110   26.2250 H       0  IPL0        0.0653
     43 H7        -28.4620   -9.2990   30.2070 H       0  IPL0        0.2176
     44 H8        -28.9100   -8.4290   23.9380 H       0  IPL0        0.2176
     45 H9        -34.7730  -10.4130   22.8830 H       0  IPL0        0.2176
@<TRIPOS>BOND
     1    19     1    2
     2    20     1    1
     3    21     1    1
     4    21    45    1
     5     1    13    1
     6    22     2    2
     7    13     7    1
     8    44    27    1
     9    23     2    1
    10     2    24    1
    11     2    14    1
    12    38     8    1
    13    27     3    1
    14    36     6    2
    15    37     7    1
    16     7     8    1
    17     7    12    1
    18     8    14    1
    19     8     9    1
    20    34     6    1
    21    18     6    1
    22    18    12    1
    23     6    35    1
    24    12    42    1
    25    12    11    1
    26    25     3    2
    27     3    15    1
    28     3    26    1
    29    39     9    1
    30     9    15    1
    31     9    10    1
    32    41    11    1
    33    11    10    1
    34    11    17    1
    35    10    40    1
    36    10    16    1
    37    31     5    2
    38    17     5    1
    39    16     4    1
    40     5    32    1
    41     5    33    1
    42    29     4    1
    43    29    43    1
    44     4    30    2
    45     4    28    1
