@<TRIPOS>MOLECULE
*****
 46 46 0 0 0
SMALL
GASTEIGER

@<TRIPOS>ATOM
      1 P         -33.1243  -11.3538   22.0328 P.3     0  IPL0        0.2103
      2 P         -28.6465  -12.8576   24.1072 P.3     0  IPL0        0.3003
      3 P         -29.1367   -7.9905   26.2202 P.3     0  IPL0        0.2103
      4 P         -30.5952  -10.3805   29.9732 P.3     0  IPL0        0.2103
      5 P         -34.5828  -11.1684   29.1494 P.3     0  IPL0        0.3003
      6 P         -35.1357  -13.7354   25.5956 P.3     0  IPL0        0.2103
      7 C         -32.2056  -11.4295   24.5606 C.3     0  IPL0        0.1239
      8 C         -30.6695  -11.1579   24.8393 C.3     0  IPL0        0.1249
      9 C         -30.6466  -10.1997   26.1005 C.3     0  IPL0        0.1239
     10 C         -31.2543  -10.8854   27.3953 C.3     0  IPL0        0.1239
     11 C         -32.7882  -11.2550   27.1164 C.3     0  IPL0        0.1249
     12 C         -32.9251  -12.1562   25.7845 C.3     0  IPL0        0.1239
     13 O         -32.4226  -12.0973   23.2957 O.3     0  IPL0       -0.3188
     14 O         -29.9158  -12.3772   25.0618 O.3     0  IPL0       -0.3074
     15 O         -29.3484   -9.6021   26.3395 O.3     0  IPL0       -0.3188
     16 O         -31.1037   -9.9353   28.4902 O.3     0  IPL0       -0.3188
     17 O         -33.4069  -11.9047   28.2625 O.3     0  IPL0       -0.3074
     18 O         -34.3216  -12.3433   25.4202 O.3     0  IPL0       -0.3188
     19 O         -33.2569  -12.2574   20.8147 O.2     0  IPL0       -0.5173
     20 O         -32.7012   -9.9184   21.8433 O.co2   0  IPL0       -0.4374
     21 O         -34.6323  -11.2934   22.6171 O.3     0  IPL0       -0.3436
     22 O         -29.1941  -13.2140   22.7294 O.2     0  IPL0       -0.2722
     23 O         -27.6322  -11.7206   24.0498 O.co2   0  IPL0       -0.7578
     24 O         -28.0588  -14.0974   24.8015 O.3     0  IPL0       -0.1534
     25 O         -27.6767   -7.5932   26.3730 O.2     0  IPL0       -0.5173
     26 O         -29.8493   -7.5513   27.6049 O.co2   0  IPL0       -0.3436
     27 O         -29.9623   -7.3605   25.1219 O.3     0  IPL0       -0.4374
     28 O         -31.8014   -9.7519   30.8475 O.3     0  IPL0       -0.3436
     29 O         -29.3989   -9.5255   30.3638 O.co2   0  IPL0       -0.4374
     30 O         -30.5346  -11.8635   30.2352 O.2     0  IPL0       -0.5173
     31 O         -35.7254  -10.8983   28.1854 O.2     0  IPL0       -0.2722
     32 O         -33.9536   -9.9206   29.7514 O.co2   0  IPL0       -0.7578
     33 O         -35.0054  -12.1683   30.2250 O.3     0  IPL0       -0.1534
     34 O         -36.5861  -13.5534   25.1749 O.3     0  IPL0       -0.4374
     35 O         -35.1213  -13.9075   27.1914 O.co2   0  IPL0       -0.3436
     36 O         -34.4054  -14.9169   24.9987 O.2     0  IPL0       -0.5173
     37 H         -32.7017  -10.4544   24.4628 H       0  IPL0        0.0654
     38 H         -30.2277  -10.6445   23.9786 H       0  IPL0        0.0655
     39 H         -31.3129   -9.3566   25.8766 H       0  IPL0        0.0654
     40 H         -30.6869  -11.7867   27.6489 H       0  IPL0        0.0654
     41 H         -33.3423  -10.3220   26.9528 H       0  IPL0        0.0655
     42 H         -32.4872  -13.1454   25.9556 H       0  IPL0        0.0654
     43 H         -35.2758  -13.0218   27.6069 H       1  UNL1        0.2176
     44 H         -32.6787   -9.9585   30.3773 H       1  UNL1        0.2176
     45 H         -30.2106   -8.3693   28.0215 H       1  UNL1        0.2176
     46 H         -34.7636  -12.1585   23.0546 H       1  UNL1        0.2176
@<TRIPOS>BOND
     1    19     1    2
     2    20     1    1
     3    21     1    1
     4     1    13    1
     5    22     2    2
     6    13     7    1
     7    23     2    1
     8     2    24    1
     9     2    14    1
    10    38     8    1
    11    27     3    1
    12    36     6    2
    13    37     7    1
    14     7     8    1
    15     7    12    1
    16     8    14    1
    17     8     9    1
    18    34     6    1
    19    18     6    1
    20    18    12    1
    21     6    35    1
    22    12    42    1
    23    12    11    1
    24    25     3    2
    25     3    15    1
    26     3    26    1
    27    39     9    1
    28     9    15    1
    29     9    10    1
    30    41    11    1
    31    11    10    1
    32    11    17    1
    33    10    40    1
    34    10    16    1
    35    31     5    2
    36    17     5    1
    37    16     4    1
    38     5    32    1
    39     5    33    1
    40    29     4    1
    41     4    30    2
    42     4    28    1
    43    35    43    1
    44    28    44    1
    45    26    45    1
    46    21    46    1
