@<TRIPOS>MOLECULE
*****
 47 47 0 0 0
SMALL
GASTEIGER

@<TRIPOS>ATOM
      1 P         -32.9547  -11.2611   22.1041 P.3     0  IPL0        0.2103
      2 P         -28.8063  -12.0855   23.9720 P.3     0  IPL0        0.2103
      3 P         -28.8727   -8.1691   26.0453 P.3     0  IPL0        0.2103
      4 P         -30.7614  -10.7686   30.2408 P.3     0  IPL0        0.3003
      5 P         -34.8959  -11.2806   28.9085 P.3     0  IPL0        0.2103
      6 P         -35.0231  -13.7954   25.5556 P.3     0  IPL0        0.2103
      7 C         -32.3317  -11.2319   24.7058 C.3     0  IPL0        0.1238
      8 C         -30.8696  -10.8098   25.0234 C.3     0  IPL0        0.1238
      9 C         -30.7742  -10.0256   26.3872 C.3     0  IPL0        0.1238
     10 C         -31.3695  -10.8844   27.5853 C.3     0  IPL0        0.1249
     11 C         -32.8694  -11.2176   27.1970 C.3     0  IPL0        0.1238
     12 C         -32.9683  -12.0622   25.8721 C.3     0  IPL0        0.1238
     13 O         -32.3783  -11.9488   23.4533 O.3     0  IPL0       -0.3188
     14 O         -30.0149  -11.9688   25.0393 O.3     0  IPL0       -0.3188
     15 O         -29.4223   -9.5837   26.6267 O.3     0  IPL0       -0.3188
     16 O         -31.3468  -10.1423   28.8316 O.3     0  IPL0       -0.3074
     17 O         -33.5558  -11.8919   28.2502 O.3     0  IPL0       -0.3188
     18 O         -34.3557  -12.3165   25.5380 O.3     0  IPL0       -0.3188
     19 O         -33.0047  -12.2329   20.9417 O.2     0  IPL0       -0.5173
     20 O         -32.4502   -9.8563   21.8943 O.co2   0  IPL0       -0.4374
     21 O         -34.5000  -11.1299   22.5591 O.3     0  IPL0       -0.3436
     22 O         -29.1730  -12.8756   22.7377 O.2     0  IPL0       -0.5173
     23 O         -27.9479  -10.8501   23.8956 O.co2   0  IPL0       -0.4374
     24 O         -27.9638  -13.2208   24.7696 O.3     0  IPL0       -0.3436
     25 O         -27.4123   -7.9279   26.3828 O.2     0  IPL0       -0.5173
     26 O         -29.8576   -7.0342   26.2422 O.co2   0  IPL0       -0.4374
     27 O         -28.8829   -8.5120   24.4689 O.3     0  IPL0       -0.3436
     28 O         -31.5377  -10.0217   31.3323 O.3     0  IPL0       -0.1534
     29 O         -29.2668  -10.4741   30.2971 O.co2   0  IPL0       -0.7578
     30 O         -31.0797  -12.2556   30.2652 O.2     0  IPL0       -0.2722
     31 O         -36.0168  -12.2850   28.6815 O.2     0  IPL0       -0.5173
     32 O         -35.1501   -9.8195   28.6337 O.co2   0  IPL0       -0.4374
     33 O         -34.4594  -11.4120   30.4592 O.3     0  IPL0       -0.3436
     34 O         -36.4546  -13.7139   25.0547 O.3     0  IPL0       -0.4374
     35 O         -35.0943  -14.1081   27.1300 O.co2   0  IPL0       -0.3436
     36 O         -34.1249  -14.8388   24.9319 O.2     0  IPL0       -0.5173
     37 H         -32.9349  -10.3231   24.5844 H       0  IPL0        0.0654
     38 H         -30.5384  -10.1719   24.2019 H       0  IPL0        0.0654
     39 H         -31.3914   -9.1222   26.3089 H       0  IPL0        0.0654
     40 H         -30.7867  -11.8012   27.7229 H       0  IPL0        0.0655
     41 H         -33.3881  -10.2669   27.0269 H       0  IPL0        0.0654
     42 H         -32.4631  -13.0266   25.9939 H       0  IPL0        0.0654
     43 H         -35.5527  -13.3718   27.6269 H       1  UNL1        0.2176
     44 H         -33.5267  -11.0691   30.5190 H       1  UNL1        0.2176
     45 H         -28.3755   -9.3630   24.3291 H       1  UNL1        0.2176
     46 H         -28.5635  -13.9745   24.6356 H       1  UNL1        0.2176
     47 H         -34.7410  -12.0274   22.8596 H       1  UNL1        0.2176
@<TRIPOS>BOND
     1    19     1    2
     2    20     1    1
     3    21     1    1
     4     1    13    1
     5    22     2    2
     6    13     7    1
     7    23     2    1
     8     2    24    1
     9     2    14    1
    10    38     8    1
    11    27     3    1
    12    36     6    2
    13    37     7    1
    14     7     8    1
    15     7    12    1
    16     8    14    1
    17     8     9    1
    18    34     6    1
    19    18     6    1
    20    18    12    1
    21     6    35    1
    22    12    42    1
    23    12    11    1
    24    25     3    2
    25     3    15    1
    26     3    26    1
    27    39     9    1
    28     9    15    1
    29     9    10    1
    30    41    11    1
    31    11    10    1
    32    11    17    1
    33    10    40    1
    34    10    16    1
    35    31     5    2
    36    17     5    1
    37    16     4    1
    38     5    32    1
    39     5    33    1
    40    29     4    1
    41     4    30    2
    42     4    28    1
    43    35    43    1
    44    33    44    1
    45    27    45    1
    46    24    46    1
    47    21    47    1
