@<TRIPOS>MOLECULE
*****
 45 45 0 0 0
SMALL
GASTEIGER

@<TRIPOS>ATOM
      1 P         -32.9291  -11.3445   22.1009 P.3     0  IPL0        0.2103
      2 P         -28.8572  -11.9762   23.7407 P.3     0  IPL0        0.3003
      3 P         -29.0288   -8.1784   25.9976 P.3     0  IPL0        0.2103
      4 P         -30.7117  -10.4265   30.2745 P.3     0  IPL0        0.2672
      5 P         -34.8137  -10.6826   29.2847 P.3     0  IPL0        0.2103
      6 P         -35.1210  -14.2123   25.7461 P.3     0  IPL0        0.3003
      7 C         -32.5195  -11.4473   24.7809 C.3     0  IPL0        0.1239
      8 C         -31.0154  -10.9468   25.0120 C.3     0  IPL0        0.1249
      9 C         -30.8928  -10.1152   26.3616 C.3     0  IPL0        0.1239
     10 C         -31.4759  -10.8878   27.6388 C.3     0  IPL0        0.1243
     11 C         -33.0305  -11.2279   27.3221 C.3     0  IPL0        0.1239
     12 C         -33.1420  -12.2566   26.0474 C.3     0  IPL0        0.1249
     13 O         -32.6748  -12.1250   23.5076 O.3     0  IPL0       -0.3188
     14 O         -30.0265  -12.0109   24.9111 O.3     0  IPL0       -0.3074
     15 O         -29.5513   -9.6049   26.5816 O.3     0  IPL0       -0.3188
     16 O         -31.3334  -10.0257   28.8051 O.3     0  IPL0       -0.3131
     17 O         -33.7569  -11.6541   28.5022 O.3     0  IPL0       -0.3188
     18 O         -34.5345  -12.6551   25.7806 O.3     0  IPL0       -0.3074
     19 O         -33.0906  -12.2835   20.9092 O.2     0  IPL0       -0.5173
     20 O         -31.5074  -10.6164   21.8875 O.co2   0  IPL0       -0.3436
     21 O         -33.9493  -10.2202   22.2167 O.3     0  IPL0       -0.4374
     22 O         -29.5746  -12.0046   22.3922 O.2     0  IPL0       -0.2722
     23 O         -28.0755  -10.6766   23.9221 O.co2   0  IPL0       -0.7578
     24 O         -27.9692  -13.2101   23.9444 O.3     0  IPL0       -0.1534
     25 O         -27.5832   -7.8688   26.3748 O.2     0  IPL0       -0.5173
     26 O         -30.0330   -7.0482   26.1749 O.co2   0  IPL0       -0.4374
     27 O         -29.0073   -8.4928   24.4171 O.3     0  IPL0       -0.3436
     28 O         -31.7504   -9.8300   31.2399 O.3     0  IPL0       -0.1625
     29 O         -29.3676   -9.7140   30.4471 O.co2   0  IPL0       -0.8189
     30 O         -30.5912  -11.9359   30.4194 O.3     0  IPL0       -0.1625
     31 O         -35.8611  -10.0534   28.3756 O.2     0  IPL0       -0.5173
     32 O         -33.8747   -9.4499   29.7343 O.co2   0  IPL0       -0.3436
     33 O         -35.3379  -11.2989   30.5783 O.3     0  IPL0       -0.4374
     34 O         -36.6012  -14.0946   25.3198 O.3     0  IPL0       -0.1534
     35 O         -35.0177  -14.8219   27.1439 O.co2   0  IPL0       -0.7578
     36 O         -34.3372  -15.0322   24.7238 O.2     0  IPL0       -0.2722
     37 H         -33.1387  -10.5443   24.6990 H       0  IPL0        0.0654
     38 H         -30.7890  -10.2511   24.2016 H       0  IPL0        0.0655
     39 H         -31.5270   -9.2263   26.2472 H       0  IPL0        0.0654
     40 H         -30.9117  -11.8072   27.8232 H       0  IPL0        0.0655
     41 H         -33.5169  -10.2941   27.0131 H       0  IPL0        0.0654
     42 H         -32.5686  -13.1687   26.2416 H       0  IPL0        0.0655
     43 H         -33.0872   -9.7641   30.2745 H       1  UNL1        0.2176
     44 H         -28.5563   -9.3945   24.2765 H       1  UNL1        0.2176
     45 H         -30.7587  -11.2828   22.0607 H       1  UNL1        0.2176
@<TRIPOS>BOND
     1     1    19    2
     2     1    20    1
     3     1    21    1
     4     1    13    1
     5     2    22    2
     6     2    23    1
     7     2    24    1
     8     2    14    1
     9     3    27    1
    10     3    25    2
    11     3    15    1
    12     3    26    1
    13     4    16    1
    14     4    29    2
    15     4    30    1
    16     4    28    1
    17     5    31    2
    18     5    17    1
    19     5    32    1
    20     5    33    1
    21     6    36    2
    22     6    34    1
    23     6    18    1
    24     6    35    1
    25     7    13    1
    26     7    37    1
    27     7     8    1
    28     7    12    1
    29     8    38    1
    30     8    14    1
    31     8     9    1
    32     9    39    1
    33     9    15    1
    34     9    10    1
    35    10    11    1
    36    10    40    1
    37    10    16    1
    38    11    12    1
    39    11    41    1
    40    11    17    1
    41    12    18    1
    42    12    42    1
    43    20    45    1
    44    27    44    1
    45    32    43    1
