@<TRIPOS>MOLECULE
*****
 47 47 0 0 0
SMALL
GASTEIGER

@<TRIPOS>ATOM
      1 P         -33.1913  -11.2024   22.1422 P.3     0  IPL0        0.2103
      2 P         -28.5773  -12.2123   24.1404 P.3     0  IPL0        0.3003
      3 P         -28.8797   -8.2548   26.1891 P.3     0  IPL0        0.2103
      4 P         -30.4478  -10.7824   30.0430 P.3     0  IPL0        0.2103
      5 P         -34.9440  -11.1500   28.8299 P.3     0  IPL0        0.2103
      6 P         -35.1270  -13.7731   25.5845 P.3     0  IPL0        0.2103
      7 C         -32.3116  -11.3068   24.6708 C.3     0  IPL0        0.1238
      8 C         -30.8019  -10.9632   24.9752 C.3     0  IPL0        0.1249
      9 C         -30.7306  -10.1624   26.3363 C.3     0  IPL0        0.1238
     10 C         -31.3600  -10.9882   27.5191 C.3     0  IPL0        0.1238
     11 C         -32.8770  -11.2450   27.1655 C.3     0  IPL0        0.1238
     12 C         -32.9990  -12.1153   25.8444 C.3     0  IPL0        0.1238
     13 O         -32.4752  -11.9516   23.3908 O.3     0  IPL0       -0.3188
     14 O         -29.9703  -12.1424   25.0288 O.3     0  IPL0       -0.3074
     15 O         -29.4147   -9.7040   26.6873 O.3     0  IPL0       -0.3188
     16 O         -31.2802  -10.2489   28.7601 O.3     0  IPL0       -0.3188
     17 O         -33.5632  -11.8058   28.3016 O.3     0  IPL0       -0.3188
     18 O         -34.3885  -12.3319   25.4970 O.3     0  IPL0       -0.3188
     19 O         -33.2811  -12.0823   20.9094 O.2     0  IPL0       -0.5173
     20 O         -32.8330   -9.7422   22.0072 O.co2   0  IPL0       -0.4374
     21 O         -34.7069  -11.2239   22.7078 O.3     0  IPL0       -0.3436
     22 O         -28.9605  -12.6998   22.7484 O.2     0  IPL0       -0.2722
     23 O         -27.9954  -10.7981   24.1361 O.co2   0  IPL0       -0.7578
     24 O         -27.6868  -13.2333   24.8540 O.3     0  IPL0       -0.1534
     25 O         -27.4739   -7.9456   26.6754 O.2     0  IPL0       -0.5173
     26 O         -29.9365   -7.1850   26.4148 O.co2   0  IPL0       -0.4374
     27 O         -28.7952   -8.5229   24.6042 O.3     0  IPL0       -0.3436
     28 O         -30.9584   -9.6170   31.0605 O.3     0  IPL0       -0.3436
     29 O         -28.9812  -10.4354   30.0254 O.co2   0  IPL0       -0.4374
     30 O         -30.9214  -12.0833   30.6427 O.2     0  IPL0       -0.5173
     31 O         -36.1208  -11.8068   28.1464 O.2     0  IPL0       -0.5173
     32 O         -34.9416   -9.6683   29.1108 O.co2   0  IPL0       -0.4374
     33 O         -35.0491  -11.8966   30.2641 O.3     0  IPL0       -0.3436
     34 O         -36.5556  -13.6637   25.0840 O.3     0  IPL0       -0.4374
     35 O         -35.2481  -13.9295   27.1840 O.co2   0  IPL0       -0.3436
     36 O         -34.2887  -14.9194   25.0788 O.2     0  IPL0       -0.5173
     37 H         -32.8532  -10.3537   24.6017 H       0  IPL0        0.0654
     38 H         -30.4499  -10.3400   24.1497 H       0  IPL0        0.0655
     39 H         -31.3491   -9.2632   26.2212 H       0  IPL0        0.0654
     40 H         -30.8316  -11.9374   27.6623 H       0  IPL0        0.0654
     41 H         -33.3570  -10.2756   26.9772 H       0  IPL0        0.0654
     42 H         -32.5232  -13.0921   25.9800 H       0  IPL0        0.0654
     43 H         -35.7225  -13.0970   27.4635 H       1  UNL1        0.2176
     44 H         -35.4040  -12.7494   29.9634 H       1  UNL1        0.2176
     45 H         -30.4503   -8.8841   30.6692 H       1  UNL1        0.2176
     46 H         -28.3868   -9.4473   24.4537 H       1  UNL1        0.2176
     47 H         -34.8629  -12.1598   22.9344 H       1  UNL1        0.2176
@<TRIPOS>BOND
     1    19     1    2
     2    20     1    1
     3    21     1    1
     4     1    13    1
     5    22     2    2
     6    13     7    1
     7    23     2    1
     8     2    24    1
     9     2    14    1
    10    38     8    1
    11    27     3    1
    12    36     6    2
    13    37     7    1
    14     7     8    1
    15     7    12    1
    16     8    14    1
    17     8     9    1
    18    34     6    1
    19    18     6    1
    20    18    12    1
    21     6    35    1
    22    12    42    1
    23    12    11    1
    24    25     3    2
    25     3    15    1
    26     3    26    1
    27    39     9    1
    28     9    15    1
    29     9    10    1
    30    41    11    1
    31    11    10    1
    32    11    17    1
    33    10    40    1
    34    10    16    1
    35    31     5    2
    36    17     5    1
    37    16     4    1
    38     5    32    1
    39     5    33    1
    40    29     4    1
    41     4    30    2
    42     4    28    1
    43    35    43    1
    44    33    44    1
    45    28    45    1
    46    27    46    1
    47    21    47    1
