@<TRIPOS>MOLECULE
*****
 47 47 0 0 0
SMALL
GASTEIGER

@<TRIPOS>ATOM
      1 P         -32.9429  -11.2932   22.0649 P.3     0  IPL0        0.2103
      2 P         -28.7928  -12.1226   23.9706 P.3     0  IPL0        0.2103
      3 P         -28.8139   -8.2562   26.0141 P.3     0  IPL0        0.2103
      4 P         -30.5814  -10.6090   30.0621 P.3     0  IPL0        0.2103
      5 P         -34.6576  -11.2602   29.2452 P.3     0  IPL0        0.3003
      6 P         -34.9821  -13.8631   25.5557 P.3     0  IPL0        0.2103
      7 C         -32.3641  -11.2608   24.6772 C.3     0  IPL0        0.1238
      8 C         -30.8945  -10.8487   24.9522 C.3     0  IPL0        0.1238
      9 C         -30.7845  -10.0545   26.2906 C.3     0  IPL0        0.1238
     10 C         -31.3732  -10.8685   27.5074 C.3     0  IPL0        0.1238
     11 C         -32.8935  -11.2329   27.2153 C.3     0  IPL0        0.1249
     12 C         -32.9893  -12.0768   25.8672 C.3     0  IPL0        0.1238
     13 O         -32.4277  -11.9930   23.4323 O.3     0  IPL0       -0.3188
     14 O         -30.0483  -12.0132   24.9824 O.3     0  IPL0       -0.3188
     15 O         -29.4183   -9.6643   26.5492 O.3     0  IPL0       -0.3188
     16 O         -31.2164  -10.0451   28.6805 O.3     0  IPL0       -0.3188
     17 O         -33.5065  -11.9649   28.3036 O.3     0  IPL0       -0.3074
     18 O         -34.3595  -12.3675   25.5064 O.3     0  IPL0       -0.3188
     19 O         -32.9732  -12.2651   20.9022 O.2     0  IPL0       -0.5173
     20 O         -32.3996   -9.8998   21.8771 O.co2   0  IPL0       -0.4374
     21 O         -34.4981  -11.1291   22.4729 O.3     0  IPL0       -0.3436
     22 O         -29.1013  -12.8996   22.7137 O.2     0  IPL0       -0.5173
     23 O         -27.9255  -10.8911   23.9426 O.co2   0  IPL0       -0.4374
     24 O         -27.9916  -13.2629   24.8023 O.3     0  IPL0       -0.3436
     25 O         -27.3565   -8.0774   26.3985 O.2     0  IPL0       -0.5173
     26 O         -29.7678   -7.0977   26.2170 O.co2   0  IPL0       -0.4374
     27 O         -28.8009   -8.5682   24.4323 O.3     0  IPL0       -0.3436
     28 O         -31.7606  -10.1282   31.0608 O.3     0  IPL0       -0.3436
     29 O         -29.3776   -9.7772   30.4800 O.co2   0  IPL0       -0.4374
     30 O         -30.4715  -12.1147   30.1368 O.2     0  IPL0       -0.5173
     31 O         -35.7638  -10.8284   28.2961 O.2     0  IPL0       -0.2722
     32 O         -33.9647  -10.1189   29.9740 O.co2   0  IPL0       -0.7578
     33 O         -35.1347  -12.3541   30.1973 O.3     0  IPL0       -0.1534
     34 O         -36.4123  -13.8429   25.0452 O.3     0  IPL0       -0.4374
     35 O         -35.0345  -14.1018   27.1434 O.co2   0  IPL0       -0.3436
     36 O         -34.0365  -14.8887   24.9723 O.2     0  IPL0       -0.5173
     37 H         -32.9687  -10.3530   24.5548 H       0  IPL0        0.0654
     38 H         -30.5634  -10.2252   24.1180 H       0  IPL0        0.0654
     39 H         -31.3744   -9.1339   26.2024 H       0  IPL0        0.0654
     40 H         -30.7938  -11.7869   27.6524 H       0  IPL0        0.0654
     41 H         -33.4616  -10.3031   27.0902 H       0  IPL0        0.0655
     42 H         -32.4653  -13.0308   25.9946 H       0  IPL0        0.0654
     43 H         -35.1836  -13.2395   27.6058 H       1  UNL1        0.2176
     44 H         -32.6448  -10.2274   30.5677 H       1  UNL1        0.2176
     45 H         -28.3220   -9.4387   24.2996 H       1  UNL1        0.2176
     46 H         -28.5869  -14.0139   24.6370 H       1  UNL1        0.2176
     47 H         -34.7523  -12.0085   22.8142 H       1  UNL1        0.2176
@<TRIPOS>BOND
     1    19     1    2
     2    20     1    1
     3    21     1    1
     4     1    13    1
     5    22     2    2
     6    13     7    1
     7    23     2    1
     8     2    24    1
     9     2    14    1
    10    38     8    1
    11    27     3    1
    12    36     6    2
    13    37     7    1
    14     7     8    1
    15     7    12    1
    16     8    14    1
    17     8     9    1
    18    34     6    1
    19    18     6    1
    20    18    12    1
    21     6    35    1
    22    12    42    1
    23    12    11    1
    24    25     3    2
    25     3    15    1
    26     3    26    1
    27    39     9    1
    28     9    15    1
    29     9    10    1
    30    41    11    1
    31    11    10    1
    32    11    17    1
    33    10    40    1
    34    10    16    1
    35    31     5    2
    36    17     5    1
    37    16     4    1
    38     5    32    1
    39     5    33    1
    40    29     4    1
    41     4    30    2
    42     4    28    1
    43    35    43    1
    44    28    44    1
    45    27    45    1
    46    24    46    1
    47    21    47    1
