@<TRIPOS>MOLECULE
*****
 47 47 0 0 0
SMALL
GASTEIGER

@<TRIPOS>ATOM
      1 P         -33.6519  -12.0291   22.3400 P.3     0  IPL0        0.3003
      2 P         -28.5716  -11.9081   24.3575 P.3     0  IPL0        0.2103
      3 P         -30.0954   -7.3406   25.7468 P.3     0  IPL0        0.2103
      4 P         -30.3464  -10.1499   29.9297 P.3     0  IPL0        0.2103
      5 P         -34.8748  -11.0056   29.1766 P.3     0  IPL0        0.2103
      6 P         -34.3047  -14.6921   25.8797 P.3     0  IPL0        0.2103
      7 C         -32.4611  -11.4884   24.7710 C.3     0  IPL0        0.1249
      8 C         -31.0512  -10.7956   24.9569 C.3     0  IPL0        0.1238
      9 C         -31.1669   -9.8282   26.1986 C.3     0  IPL0        0.1238
     10 C         -31.5055  -10.6718   27.4930 C.3     0  IPL0        0.1238
     11 C         -32.9560  -11.2765   27.2514 C.3     0  IPL0        0.1238
     12 C         -32.8796  -12.3199   26.0582 C.3     0  IPL0        0.1238
     13 O         -32.5189  -12.2321   23.4973 O.3     0  IPL0       -0.3074
     14 O         -29.9944  -11.8138   25.1424 O.3     0  IPL0       -0.3188
     15 O         -30.0432   -8.8697   26.3254 O.3     0  IPL0       -0.3188
     16 O         -31.4123   -9.8715   28.7294 O.3     0  IPL0       -0.3188
     17 O         -33.6283  -11.7899   28.4677 O.3     0  IPL0       -0.3188
     18 O         -34.1535  -13.0630   25.8623 O.3     0  IPL0       -0.3188
     19 O         -33.9080  -13.2839   21.5902 O.2     0  IPL0       -0.2722
     20 O         -33.3699  -10.9495   21.3512 O.co2   0  IPL0       -0.7578
     21 O         -34.9671  -11.6369   23.2127 O.3     0  IPL0       -0.1534
     22 O         -28.6411  -12.2882   22.9254 O.2     0  IPL0       -0.5173
     23 O         -27.6615  -10.7501   24.5220 O.co2   0  IPL0       -0.4374
     24 O         -27.9637  -13.1726   25.1751 O.3     0  IPL0       -0.3436
     25 O         -29.1307   -6.4137   26.3964 O.2     0  IPL0       -0.5173
     26 O         -31.4426   -6.7199   25.7763 O.co2   0  IPL0       -0.4374
     27 O         -29.6231   -7.5558   24.2113 O.3     0  IPL0       -0.3436
     28 O         -30.8797   -9.0515   30.9937 O.3     0  IPL0       -0.3436
     29 O         -28.9323   -9.8297   29.6237 O.co2   0  IPL0       -0.4374
     30 O         -30.4227  -11.4824   30.5773 O.2     0  IPL0       -0.5173
     31 O         -36.2150  -11.0580   28.5401 O.2     0  IPL0       -0.5173
     32 O         -34.3367   -9.4917   29.4079 O.co2   0  IPL0       -0.3436
     33 O         -34.9153  -11.5689   30.7078 O.3     0  IPL0       -0.4374
     34 O         -35.7431  -14.9730   25.1613 O.3     0  IPL0       -0.4374
     35 O         -34.7274  -15.0967   27.3943 O.co2   0  IPL0       -0.3436
     36 O         -33.2131  -15.5378   25.3387 O.2     0  IPL0       -0.5173
     37 H         -33.1802  -10.6731   24.6702 H       0  IPL0        0.0655
     38 H         -30.8181  -10.2162   24.0604 H       0  IPL0        0.0654
     39 H         -32.0388   -9.1941   26.0235 H       0  IPL0        0.0654
     40 H         -30.7881  -11.4912   27.5870 H       0  IPL0        0.0654
     41 H         -33.5956  -10.4599   26.9082 H       0  IPL0        0.0654
     42 H         -32.1003  -13.0550   26.2755 H       0  IPL0        0.0654
     43 H         -35.6090  -14.7299   27.5802 H       1  UNL1        0.2176
     44 H         -34.9488   -8.9875   29.9637 H       1  UNL1        0.2176
     45 H         -30.3172   -9.1452   31.7736 H       1  UNL1        0.2176
     46 H         -28.7009   -7.8659   24.2137 H       1  UNL1        0.2176
     47 H         -27.1017  -13.4001   24.7995 H       1  UNL1        0.2176
@<TRIPOS>BOND
     1    19     1    2
     2    20     1    1
     3    21     1    1
     4     1    13    1
     5    22     2    2
     6    13     7    1
     7    23     2    1
     8     2    24    1
     9     2    14    1
    10    38     8    1
    11    27     3    1
    12    36     6    2
    13    37     7    1
    14     7     8    1
    15     7    12    1
    16     8    14    1
    17     8     9    1
    18    34     6    1
    19    18     6    1
    20    18    12    1
    21     6    35    1
    22    12    42    1
    23    12    11    1
    24    25     3    2
    25     3    15    1
    26     3    26    1
    27    39     9    1
    28     9    15    1
    29     9    10    1
    30    41    11    1
    31    11    10    1
    32    11    17    1
    33    10    40    1
    34    10    16    1
    35    31     5    2
    36    17     5    1
    37    16     4    1
    38     5    32    1
    39     5    33    1
    40    29     4    1
    41     4    30    2
    42     4    28    1
    43    35    43    1
    44    32    44    1
    45    28    45    1
    46    27    46    1
    47    24    47    1
