@<TRIPOS>MOLECULE
*****
 45 45 0 0 0
SMALL
GASTEIGER

@<TRIPOS>ATOM
      1 P         -33.1725  -10.5324   22.2361 P.3     0  IPL0        0.3003
      2 P         -29.1286  -12.1450   25.4158 P.3     0  IPL0       -0.0121
      3 P         -28.5118   -7.8336   26.1602 P.3     0  IPL0        0.3003
      4 P         -30.7422   -8.5094   30.1157 P.3     0  IPL0        0.2103
      5 P         -35.5734   -9.0855   28.9811 P.3     0  IPL0       -0.0144
      6 P         -35.7393  -12.3502   26.2026 P.3     0  IPL0       -0.0121
      7 C         -32.6199  -10.3129   24.9335 C.3     0  IPL0        0.1247
      8 C         -31.0602  -10.2022   25.3668 C.3     0  IPL0        0.1199
      9 C         -30.9449   -9.0801   26.4922 C.3     0  IPL0        0.1248
     10 C         -31.8336   -9.4408   27.7765 C.3     0  IPL0        0.1237
     11 C         -33.3900   -9.6244   27.3693 C.3     0  IPL0        0.1197
     12 C         -33.5146  -10.7694   26.2205 C.3     0  IPL0        0.1197
     13 O         -32.8164  -11.1455   23.7439 O.3     0  IPL0       -0.3074
     14 O         -30.5494  -11.4761   25.8573 O.3     0  IPL0       -0.3585
     15 O         -29.5917   -8.7915   26.9322 O.3     0  IPL0       -0.3074
     16 O         -31.6730   -8.3950   28.7841 O.3     0  IPL0       -0.3188
     17 O         -34.1808   -9.8832   28.5748 O.3     0  IPL0       -0.3587
     18 O         -34.8949  -11.0060   25.8342 O.3     0  IPL0       -0.3585
     19 O         -33.3249  -11.7459   21.2959 O.2     0  IPL0       -0.2722
     20 O         -32.0119   -9.6462   21.7907 O.co2   0  IPL0       -0.7578
     21 O         -34.4776   -9.7408   22.3145 O.3     0  IPL0       -0.1534
     22 O         -28.8615  -12.2205   23.9292 O.2     0  IPL0       -0.6376
     23 O         -28.0475  -11.1277   26.0381 O.co2   0  IPL0       -0.5648
     24 O         -28.9130  -13.4536   26.1817 O.co2   0  IPL0       -0.5769
     25 O         -27.8091   -8.7664   25.1806 O.2     0  IPL0       -0.2722
     26 O         -27.5553   -7.3783   27.2677 O.co2   0  IPL0       -0.7578
     27 O         -29.2371   -6.6571   25.5277 O.3     0  IPL0       -0.1534
     28 O         -30.5022   -7.1341   30.7332 O.co2   0  IPL0       -0.4374
     29 O         -29.3254   -8.9700   29.5039 O.3     0  IPL0       -0.3436
     30 O         -31.1456   -9.6208   31.0667 O.2     0  IPL0       -0.5173
     31 O         -36.7008   -9.8788   28.3148 O.2     0  IPL0       -0.6377
     32 O         -35.5051   -7.6354   28.5137 O.co2   0  IPL0       -0.5770
     33 O         -35.7248   -9.1902   30.5074 O.co2   0  IPL0       -0.5770
     34 O         -37.1400  -12.3535   25.5913 O.co2   0  IPL0       -0.5769
     35 O         -35.9716  -12.1490   27.7851 O.co2   0  IPL0       -0.5648
     36 O         -34.9491  -13.6427   26.0781 O.2     0  IPL0       -0.6376
     37 H         -32.9624   -9.3104   24.6482 H       0  IPL0        0.0655
     38 H         -30.4616   -9.9218   24.4940 H       0  IPL0        0.0653
     39 H         -31.3365   -8.1402   26.0852 H       0  IPL0        0.0655
     40 H         -31.4733  -10.3711   28.2307 H       0  IPL0        0.0654
     41 H         -33.7552   -8.6789   26.9537 H       0  IPL0        0.0653
     42 H         -33.1247  -11.7144   26.6140 H       0  IPL0        0.0653
     43 H         -36.3091  -11.2033   27.9269 H       1  UNL1       -0.0150
     44 H         -29.1391   -8.4859   28.6591 H       1  UNL1        0.2176
     45 H         -28.0597  -10.2295   25.5769 H       1  UNL1       -0.0150
@<TRIPOS>BOND
     1    19     1    2
     2    20     1    1
     3    21     1    1
     4     1    13    1
     5    22     2    2
     6    13     7    1
     7    23     2    1
     8     2    24    1
     9     2    14    1
    10    38     8    1
    11    27     3    1
    12    36     6    2
    13    37     7    1
    14     7     8    1
    15     7    12    1
    16     8    14    1
    17     8     9    1
    18    34     6    1
    19    18     6    1
    20    18    12    1
    21     6    35    1
    22    12    42    1
    23    12    11    1
    24    25     3    2
    25     3    15    1
    26     3    26    1
    27    39     9    1
    28     9    15    1
    29     9    10    1
    30    41    11    1
    31    11    10    1
    32    11    17    1
    33    10    40    1
    34    10    16    1
    35    31     5    2
    36    17     5    1
    37    16     4    1
    38     5    32    1
    39     5    33    1
    40    29     4    1
    41     4    30    2
    42     4    28    1
    43    35    43    1
    44    29    44    1
    45    23    45    1
