@<TRIPOS>MOLECULE
*****
 46 46 0 0 0
SMALL
GASTEIGER

@<TRIPOS>ATOM
      1 P         -33.2151  -11.1791   21.9490 P.3     0  IPL0        0.3003
      2 P         -28.8140  -12.7537   24.3143 P.3     0  IPL0        0.2103
      3 P         -28.8761   -8.2924   26.5730 P.3     0  IPL0        0.3003
      4 P         -30.6458  -10.3430   29.9266 P.3     0  IPL0        0.2103
      5 P         -34.7841  -11.0256   29.0885 P.3     0  IPL0        0.2103
      6 P         -34.9419  -14.1282   25.9038 P.3     0  IPL0        0.2103
      7 C         -32.4612  -11.3739   24.5468 C.3     0  IPL0        0.1249
      8 C         -30.9199  -11.0948   24.8534 C.3     0  IPL0        0.1239
      9 C         -30.7952  -10.1760   26.1555 C.3     0  IPL0        0.1249
     10 C         -31.4784  -10.8931   27.4016 C.3     0  IPL0        0.1238
     11 C         -33.0006  -11.2394   27.0558 C.3     0  IPL0        0.1238
     12 C         -33.0844  -12.1783   25.7761 C.3     0  IPL0        0.1238
     13 O         -32.6597  -12.0238   23.2657 O.3     0  IPL0       -0.3074
     14 O         -30.1891  -12.3383   25.0808 O.3     0  IPL0       -0.3188
     15 O         -29.3962   -9.8418   26.3648 O.3     0  IPL0       -0.3074
     16 O         -31.4914  -10.0569   28.5757 O.3     0  IPL0       -0.3188
     17 O         -33.6708  -11.8373   28.2030 O.3     0  IPL0       -0.3188
     18 O         -34.4517  -12.6149   25.5465 O.3     0  IPL0       -0.3188
     19 O         -33.2218  -12.1678   20.7719 O.2     0  IPL0       -0.2722
     20 O         -32.2552  -10.0175   21.7159 O.co2   0  IPL0       -0.7578
     21 O         -34.6278  -10.6943   22.2703 O.3     0  IPL0       -0.1534
     22 O         -28.8829  -12.7213   22.8084 O.2     0  IPL0       -0.5173
     23 O         -27.8323  -11.5510   24.7451 O.co2   0  IPL0       -0.3436
     24 O         -28.2217  -14.0011   24.9595 O.3     0  IPL0       -0.4374
     25 O         -27.3489   -8.3483   26.4955 O.2     0  IPL0       -0.2722
     26 O         -29.3463   -7.8881   27.9680 O.co2   0  IPL0       -0.7578
     27 O         -29.4672   -7.4542   25.4517 O.3     0  IPL0       -0.1534
     28 O         -31.2084   -9.4608   31.0312 O.3     0  IPL0       -0.4374
     29 O         -29.2034   -9.7660   29.5320 O.co2   0  IPL0       -0.3436
     30 O         -30.4996  -11.8185   30.2222 O.2     0  IPL0       -0.5173
     31 O         -36.0138  -10.6456   28.2944 O.2     0  IPL0       -0.5173
     32 O         -34.0238   -9.6442   29.4062 O.co2   0  IPL0       -0.3436
     33 O         -34.9915  -11.7107   30.4252 O.3     0  IPL0       -0.4374
     34 O         -36.3557  -14.4001   25.4038 O.3     0  IPL0       -0.4374
     35 O         -35.1021  -13.9805   27.5059 O.co2   0  IPL0       -0.3436
     36 O         -33.8896  -15.1932   25.7189 O.2     0  IPL0       -0.5173
     37 H         -32.9794  -10.4088   24.4850 H       0  IPL0        0.0655
     38 H         -30.4588  -10.5899   23.9985 H       0  IPL0        0.0654
     39 H         -31.3303   -9.2359   25.9772 H       0  IPL0        0.0655
     40 H         -30.9379  -11.8120   27.6518 H       0  IPL0        0.0654
     41 H         -33.5380  -10.3072   26.8406 H       0  IPL0        0.0654
     42 H         -32.4913  -13.0805   25.9566 H       0  IPL0        0.0654
     43 H         -34.3346  -13.4592   27.8245 H       1  UNL1        0.2176
     44 H         -33.1548   -9.8284   29.8247 H       1  UNL1        0.2176
     45 H         -29.3214   -8.9608   28.9251 H       1  UNL1        0.2176
     46 H         -28.3043  -10.6916   24.7081 H       1  UNL1        0.2176
@<TRIPOS>BOND
     1    19     1    2
     2    20     1    1
     3    21     1    1
     4     1    13    1
     5    22     2    2
     6    13     7    1
     7    23     2    1
     8     2    24    1
     9     2    14    1
    10    38     8    1
    11    27     3    1
    12    36     6    2
    13    37     7    1
    14     7     8    1
    15     7    12    1
    16     8    14    1
    17     8     9    1
    18    34     6    1
    19    18     6    1
    20    18    12    1
    21     6    35    1
    22    12    42    1
    23    12    11    1
    24    25     3    2
    25     3    15    1
    26     3    26    1
    27    39     9    1
    28     9    15    1
    29     9    10    1
    30    41    11    1
    31    11    10    1
    32    11    17    1
    33    10    40    1
    34    10    16    1
    35    31     5    2
    36    17     5    1
    37    16     4    1
    38     5    32    1
    39     5    33    1
    40    29     4    1
    41     4    30    2
    42     4    28    1
    43    35    43    1
    44    32    44    1
    45    29    45    1
    46    23    46    1
